<additional>
    <rsu id="RSU_1" lane="B1.2102_1" pos="100" />
    <rsu id="RSU_2" lane="B2_1" pos="100" />
</additional>