<?xml version="1.0" encoding="UTF-8"?>
<routes xmlns:xsi="http://www.w3.org/2001/XMLSchema-instance" xsi:noNamespaceSchemaLocation="http://sumo.dlr.de/xsd/routes_file.xsd">
    <vType id="car_normal" vClass="passenger" length="4.5" minGap="2.5" maxSpeed="33.33" accel="2.6" decel="4.5" sigma="0.5" color="1,1,0"/>
    <vType id="car_speeding" vClass="passenger" length="4.5" minGap="2.5" maxSpeed="50" accel="3.0" decel="4.5" sigma="0.5" color="1,0,0"/>
    
    <route id="route_main" edges="B1.2102 B2"/>
    
    <vehicle id="veh0" type="car_speeding" route="route_main" depart="0" departLane="0" departSpeed="30"/>
    <vehicle id="veh1" type="car_normal" route="route_main" depart="5" departLane="1" departSpeed="20"/>
    <vehicle id="veh2" type="car_normal" route="route_main" depart="10" departLane="2" departSpeed="max"/>
    <vehicle id="veh3" type="car_speeding" route="route_main" depart="15" departLane="1" departSpeed="max"/>
</routes>