<?xml version="1.0" encoding="UTF-8"?>

<!-- generated on 2024-09-27 09:17:43 by Eclipse SUMO netedit Version v1_20_0+1676-0884fd201b0
-->

<additional xmlns:xsi="http://www.w3.org/2001/XMLSchema-instance" xsi:noNamespaceSchemaLocation="http://sumo.dlr.de/xsd/additional_file.xsd">
    <!-- Shapes -->
    <poly id="po_1" color="0,167,255" fill="1" layer="0.00" shape="3117.621312,3252.988603 3089.029527,3207.108763 3206.056365,3151.255045 3235.313075,3202.454287 3117.621312,3250.993827"/>
</additional>
