<?xml version="1.0" encoding="UTF-8"?>
<routes xmlns:xsi="http://www.w3.org/2001/XMLSchema-instance" xsi:noNamespaceSchemaLocation="http://sumo.dlr.de/xsd/routes_file.xsd">
    
    <!-- Définition des types de véhicules -->
    <vType id="car" vClass="passenger" length="4.5" minGap="2.5" maxSpeed="33.33" accel="1" decel="4.5" sigma="0.5" color="1,1,0"/>
    <vType id="truck" vClass="truck" length="12.0" minGap="2.5" maxSpeed="25.0" accel="1.3" decel="4.0" sigma="0.5" color="0,0,1"/>
    <vType id="emergency" vClass="emergency" length="5.0" minGap="2.5" maxSpeed="41.67" accel="3.0" decel="5.0" sigma="0.5" color="1,0,0"/>
    
    <!-- Définition de la  route -->
    <route id="route_B" edges="B1.2102 B2"/>
    
    <!-- Véhicules -->
    <!-- Véhicule A (celui qui détecte le risque de collision) -->
    <vehicle id="vehA" type="car" route="route_B" depart="0" departLane="1" departSpeed="12">
        
    <stop busStop="toll_B2" duration="1"/>
    </vehicle>

    <!-- Véhicule B,C,D qui vont venir à haute vitesse  -->
    <vehicle id="vehB" type="car" route="route_B" depart="5" departLane="1" departSpeed="max">
        
    <stop busStop="toll_B2" duration="1"/>
    </vehicle>


    <vehicle id="vehC" type="car" route="route_B" depart="6" departLane="1" departSpeed="max">
    </vehicle>


    <vehicle id="vehD" type="car" route="route_B" depart="7" departLane="1" departSpeed="max">
    </vehicle>
    
    <!-- Flux aléatoire de voitures -->
    

</routes>